%nprocshared=8
%mem=16GB
%chk=ccpvdz_Radical-0047_IRCreverse_Product.chk
# opt=calcfc freq m062x cc-pvdz empiricaldispersion=gd3 

ccpvdz_Radical-0047_IRCreverse_Product optfreq

0 2
C 3.802625 0.970752 0.588185
C 2.835296 1.940303 0.335406
C 1.624492 1.534388 -0.211580
C 1.366588 0.163089 -0.508609
C 2.375910 -0.807358 -0.277349
C 3.577412 -0.390349 0.277131
H 4.765650 1.234039 1.023986
H 3.029464 2.989476 0.558999
H 2.193993 -1.849449 -0.532171
C 0.062533 0.052274 -1.012002
N 0.548412 2.304636 -0.625448
H 0.336874 3.180976 -0.161718
C -0.609897 -1.180777 -1.522612
H -1.580323 -0.937418 -1.979322
H 0.014560 -1.642676 -2.308538
C -0.860094 -2.240006 -0.432209
H 0.085316 -2.533782 0.044959
H -1.311450 -3.127208 -0.894424
N -1.765732 -1.783496 0.599913
H -1.403707 -1.166569 1.316495
C -3.114349 -1.785170 0.364512
C -3.961696 -1.165401 1.454781
H -3.399960 -0.450115 2.069357
H -4.814051 -0.662665 0.984024
H -4.349284 -1.966348 2.100409
O -3.592927 -2.292176 -0.633877
O 4.617662 -1.216836 0.570334
C 4.436951 -2.589930 0.315009
H 3.588919 -2.996918 0.891152
H 4.266676 -2.781417 -0.757689
H 5.361625 -3.085675 0.629431
C -1.682773 1.571625 0.018052
F -2.034013 2.862170 0.159948
F -2.773404 0.899791 -0.368160
F -1.340329 1.131536 1.241379
C -0.551292 1.431138 -0.995158
H -0.996777 1.712293 -1.967885

--Link1--
%nprocshared=8
%mem=16GB
%chk=ccpvdz_Radical-0047_IRCreverse_Product.chk
# m062x cc-pvtz empiricaldispersion=gd3  Geom=Checkpoint

ccpvdz_Radical-0047_IRCreverse_Product E_ccpvtz

0 2

--Link1--
%nprocshared=8
%mem=16GB
%chk=ccpvdz_Radical-0047_IRCreverse_Product.chk
# m062x cc-pvqz empiricaldispersion=gd3  Geom=Checkpoint

ccpvdz_Radical-0047_IRCreverse_Product E_ccpvqz

0 2

