%nprocshared=8
%mem=16GB
%chk=ccpvdz_Radical-0001_IRCforward_Complex_R1.chk
# opt=calcfc freq m062x cc-pvdz empiricaldispersion=gd3 

ccpvdz_Radical-0001_IRCforward_Complex_R1 optfreq

0 2
 C      -1.62811400      0.56636600     -1.47023600
 F      -0.76762600     -0.04519900     -2.25298300
 F      -2.86248500      0.18663400     -1.73617800
 F      -1.52037100      1.88778200     -1.60287300

--Link1--
%nprocshared=8
%mem=16GB
%chk=ccpvdz_Radical-0001_IRCforward_Complex_R1.chk
# m062x cc-pvtz empiricaldispersion=gd3 Geom=Checkpoint

ccpvdz_Radical-0001_IRCforward_Complex_R1 E_ccpvtz

0 2

--Link1--
%nprocshared=8
%mem=16GB
%chk=ccpvdz_Radical-0001_IRCforward_Complex_R1.chk
# m062x cc-pvqz empiricaldispersion=gd3 Geom=Checkpoint

ccpvdz_Radical-0001_IRCforward_Complex_R1 E_ccpvqz

0 2

