%nprocshared=8
%mem=16GB
%chk=ccpvdz_Radical-0003_IRCreverse_Product.chk
# opt=calcfc freq m062x cc-pvdz empiricaldispersion=gd3 

ccpvdz_Radical-0003_IRCreverse_Product optfreq

0 2
C -3.825317 -1.117353 -0.749737
C -2.635158 -1.776885 -1.047407
C -1.436766 -1.121751 -0.791588
C -1.416661 0.193765 -0.236911
C -2.637918 0.860248 0.040024
C -3.825870 0.192082 -0.214537
H -4.791423 -1.589980 -0.922863
H -2.648768 -2.781285 -1.471068
H -2.622556 1.860424 0.468764
C -0.082005 0.579591 -0.062097
N -0.138667 -1.522266 -1.066411
H 0.091692 -2.509914 -1.073651
C 0.412422 1.914055 0.391826
H -0.395765 2.645970 0.237975
H 0.617346 1.915393 1.480413
C 1.668980 2.428944 -0.331092
H 1.734313 3.519431 -0.195551
H 1.619104 2.224102 -1.408771
N 2.891562 1.816861 0.150539
H 3.076147 1.854719 1.145314
C 3.678024 0.998936 -0.605847
C 4.810856 0.329197 0.141900
H 4.462448 -0.659970 0.473898
H 5.648574 0.186221 -0.549214
H 5.138302 0.900447 1.020284
O 3.460731 0.781986 -1.787401
O -5.064701 0.704332 0.025407
C -5.126232 1.999770 0.572480
H -4.629460 2.044983 1.556339
H -4.661427 2.742335 -0.097801
H -6.189716 2.233784 0.691578
C 1.354485 -1.274740 0.835004
F 2.053485 -0.420147 1.605164
F 0.400204 -1.806537 1.602005
F 2.196037 -2.272079 0.498629
C 0.785902 -0.603003 -0.416151
H 1.638077 -0.355716 -1.071340

--Link1--
%nprocshared=8
%mem=16GB
%chk=ccpvdz_Radical-0003_IRCreverse_Product.chk
# m062x cc-pvtz empiricaldispersion=gd3  Geom=Checkpoint

ccpvdz_Radical-0003_IRCreverse_Product E_ccpvtz

0 2

--Link1--
%nprocshared=8
%mem=16GB
%chk=ccpvdz_Radical-0003_IRCreverse_Product.chk
# m062x cc-pvqz empiricaldispersion=gd3  Geom=Checkpoint

ccpvdz_Radical-0003_IRCreverse_Product E_ccpvqz

0 2

