%nprocshared=8
%mem=16GB
%chk=ccpvdz_Radical-0005_IRCforward_Complex_R2.chk
# opt=calcfc freq m062x cc-pvdz empiricaldispersion=gd3 

ccpvdz_Radical-0005_IRCforward_Complex_R2 optfreq

0 1
 C      -2.43091100      2.29118400     -0.14773400
 C      -3.04365200      1.16129700     -0.65440700
 C      -2.21769900      0.11077500     -1.08359600
 C      -0.81401400      0.20743800     -1.00463800
 C      -0.19749600      1.36390700     -0.48690100
 C      -1.01885600      2.39534700     -0.05964400
 H      -3.01889900      3.13716900      0.20771200
 H      -4.13092100      1.09289500     -0.70547100
 H       0.88983000      1.40938800     -0.40938800
 C      -0.26816700     -1.03719400     -1.47800600
 N      -2.51438400     -1.13945700     -1.58607700
 H      -3.44159200     -1.49323200     -1.76773400
 C       1.19387600     -1.35202200     -1.47107000
 H       1.41135200     -2.26097900     -2.05163200
 H       1.74486100     -0.51892300     -1.93638600
 C       1.71020400     -1.50153600     -0.02892000
 H       1.40402000     -2.46750100      0.39470300
 H       1.26741500     -0.71000100      0.59270900
 N       3.15135400     -1.37130300      0.08146900
 H       3.73922200     -2.19098900      0.01661500
 C       3.73105900     -0.14082600      0.07377600
 C       5.24437600     -0.12048000      0.10519900
 H       5.60980100      0.21204700     -0.87634100
 H       5.56252000      0.62325300      0.84571000
 H       5.68742000     -1.09530300      0.34557000
 O       3.07387200      0.88967400      0.04147200
 O      -0.56003400      3.56015700      0.47582800
 C       0.84165500      3.68007600      0.59797600
 H       1.33586800      3.63885700     -0.38678700
 H       1.02587200      4.65511400      1.06230500
 H       1.26427400      2.87916700      1.22619000
 C      -1.34025300     -1.82314300     -1.81978700
 H      -1.35963800     -2.83450600     -2.21681800

--Link1--
%nprocshared=8
%mem=16GB
%chk=ccpvdz_Radical-0005_IRCforward_Complex_R2.chk
# m062x cc-pvtz empiricaldispersion=gd3 Geom=Checkpoint

ccpvdz_Radical-0005_IRCforward_Complex_R2 E_ccpvtz

0 1

--Link1--
%nprocshared=8
%mem=16GB
%chk=ccpvdz_Radical-0005_IRCforward_Complex_R2.chk
# m062x cc-pvqz empiricaldispersion=gd3 Geom=Checkpoint

ccpvdz_Radical-0005_IRCforward_Complex_R2 E_ccpvqz

0 1

