%nprocshared=8
%mem=16GB
%chk=ccpvdz_Radical-0045_IRCforward_Complex_R1.chk
# opt=calcfc freq m062x cc-pvdz empiricaldispersion=gd3 

ccpvdz_Radical-0045_IRCforward_Complex_R1 optfreq

0 2
 C      -0.35391100      2.56283100      0.05719500
 F       0.90843500      2.89725600     -0.14943800
 F      -0.97840100      2.39361200     -1.09273000
 F      -0.96178700      3.47382400      0.79187700

--Link1--
%nprocshared=8
%mem=16GB
%chk=ccpvdz_Radical-0045_IRCforward_Complex_R1.chk
# m062x cc-pvtz empiricaldispersion=gd3 Geom=Checkpoint

ccpvdz_Radical-0045_IRCforward_Complex_R1 E_ccpvtz

0 2

--Link1--
%nprocshared=8
%mem=16GB
%chk=ccpvdz_Radical-0045_IRCforward_Complex_R1.chk
# m062x cc-pvqz empiricaldispersion=gd3 Geom=Checkpoint

ccpvdz_Radical-0045_IRCforward_Complex_R1 E_ccpvqz

0 2

