%nprocshared=8
%mem=16GB
%chk=ccpvdz_Radical-0047_IRCforward_Complex_R2.chk
# opt=calcfc freq m062x cc-pvdz empiricaldispersion=gd3 

ccpvdz_Radical-0047_IRCforward_Complex_R2 optfreq

0 1
 C      -3.40655300      1.03894700      0.08427100
 C      -2.47327000      1.75263400      0.80843000
 C      -1.31192700      1.08205400      1.21764500
 C      -1.08624800     -0.27557800      0.89953600
 C      -2.05564500     -0.99261400      0.16407700
 C      -3.20545600     -0.32712900     -0.23447700
 H      -4.32865200      1.50394200     -0.26315700
 H      -2.63763500      2.80421700      1.04624700
 H      -1.89634700     -2.04544000     -0.06471300
 C       0.19353800     -0.63784300      1.45425900
 N      -0.21851000      1.52710800      1.92923000
 H      -0.10904700      2.45219900      2.31756200
 C       0.88365700     -1.96064000      1.35260000
 H       1.78946400     -1.95414900      1.97246300
 H       0.22954000     -2.76516600      1.72841400
 C       1.29535200     -2.32617800     -0.08262300
 H       0.40627000     -2.48325700     -0.70907700
 H       1.86631900     -3.26729800     -0.05455000
 N       2.09871800     -1.30845300     -0.73322300
 H       1.72229700     -0.80960900     -1.52685600
 C       3.36519900     -1.03865100     -0.31372400
 C       4.12002000     -0.00122300     -1.11990300
 H       3.50690800      0.48227500     -1.89016400
 H       4.50543500      0.75981100     -0.42991800
 H       4.98269400     -0.49358900     -1.58879100
 O       3.86550200     -1.61211800      0.63995200
 O      -4.22003600     -0.89536000     -0.94721800
 C      -4.07860800     -2.25359700     -1.28506900
 H      -3.19009800     -2.42159000     -1.91749900
 H      -4.00066600     -2.88718200     -0.38535000
 H      -4.97907300     -2.52809800     -1.84537300
 C       0.67702900      0.48982700      2.06863800
 H       1.61764400      0.62966500      2.59468100

--Link1--
%nprocshared=8
%mem=16GB
%chk=ccpvdz_Radical-0047_IRCforward_Complex_R2.chk
# m062x cc-pvtz empiricaldispersion=gd3 Geom=Checkpoint

ccpvdz_Radical-0047_IRCforward_Complex_R2 E_ccpvtz

0 1

--Link1--
%nprocshared=8
%mem=16GB
%chk=ccpvdz_Radical-0047_IRCforward_Complex_R2.chk
# m062x cc-pvqz empiricaldispersion=gd3 Geom=Checkpoint

ccpvdz_Radical-0047_IRCforward_Complex_R2 E_ccpvqz

0 1

