%nprocshared=8
%mem=16GB
%chk=ccpvdz_Radical-0044_IRCreverse_Product.chk
# opt=calcfc freq m062x cc-pvdz empiricaldispersion=gd3 

ccpvdz_Radical-0044_IRCreverse_Product optfreq

0 2
C -3.541703 -0.353152 1.136575
C -2.470082 0.306184 1.759645
C -1.239743 0.323548 1.128720
C -1.051149 -0.318967 -0.135659
C -2.130327 -0.991494 -0.739580
C -3.368172 -0.998151 -0.101635
H -4.511203 -0.355500 1.630360
H -2.616290 0.798809 2.721111
H -2.038387 -1.482172 -1.708488
C 0.270930 -0.087852 -0.553023
N -0.031376 0.854851 1.558296
H -0.029000 1.667241 2.165433
C 0.901015 -0.501469 -1.840158
H 0.343334 -1.359162 -2.250898
H 0.811181 0.308875 -2.588247
C 2.389594 -0.853132 -1.731022
H 2.960719 0.006681 -1.358590
H 2.775964 -1.103576 -2.730569
N 2.658725 -1.945696 -0.817607
H 2.286347 -2.862103 -1.031372
C 3.314852 -1.774291 0.365366
C 3.446120 -3.018831 1.217083
H 4.366561 -2.938582 1.805380
H 2.595574 -3.059200 1.913087
H 3.459292 -3.940785 0.621111
O 3.749304 -0.692681 0.729996
O -4.368771 -1.650465 -0.762316
C -5.654814 -1.614603 -0.191039
H -6.020080 -0.579603 -0.081177
H -6.311087 -2.158079 -0.879858
H -5.676276 -2.109273 0.794714
C 1.072887 2.236051 -0.124269
F 1.955568 2.245533 -1.137218
F -0.079083 2.732097 -0.587874
F 1.522317 3.091151 0.810732
C 0.915922 0.833882 0.452777
H 1.925742 0.519498 0.769358

--Link1--
%nprocshared=8
%mem=16GB
%chk=ccpvdz_Radical-0044_IRCreverse_Product.chk
# m062x cc-pvtz empiricaldispersion=gd3  Geom=Checkpoint

ccpvdz_Radical-0044_IRCreverse_Product E_ccpvtz

0 2

--Link1--
%nprocshared=8
%mem=16GB
%chk=ccpvdz_Radical-0044_IRCreverse_Product.chk
# m062x cc-pvqz empiricaldispersion=gd3  Geom=Checkpoint

ccpvdz_Radical-0044_IRCreverse_Product E_ccpvqz

0 2

