%nprocshared=12
%mem=12GB
# irc=(reverse,phase=(32,36),calcfc,maxpoints=100,recalc=3,Tight) m062x cc-pvdz empiricaldispersion=gd3 

ccpvdz_Radical-0002_IRCreverse.gjf IRCreverse

0 2
C 2.154951 -2.447691 -0.52351
C 0.877323 -2.909508 -0.275476
C 0.000313 -2.058924 0.413463
C 0.40395 -0.77284 0.839341
C 1.722574 -0.325942 0.603374
C 2.578711 -1.163094 -0.09064
H 2.879383 -3.058844 -1.061537
H 0.566814 -3.899324 -0.611156
H 2.023372 0.666785 0.933317
C -0.717153 -0.152653 1.472781
N -1.30792 -2.236728 0.804727
H -1.900982 -3.00288 0.518488
C -0.735618 1.227179 2.053589
H -1.344021 1.257436 2.9705
H 0.290515 1.50503 2.331441
C -1.276227 2.305122 1.090866
H -1.053406 3.296183 1.512996
H -2.36519 2.211528 0.988706
N -0.721191 2.230143 -0.246476
H -1.283724 1.819745 -0.979802
C 0.595283 2.456317 -0.492156
C 1.051278 2.134252 -1.898085
H 0.252129 2.260745 -2.640497
H 1.90363 2.775112 -2.150132
H 1.380867 1.0831 -1.913597
O 1.361866 2.852455 0.376127
O 3.85727 -0.837998 -0.424468
C 4.31253 0.429937 0.001113
H 3.671427 1.242745 -0.379316
H 4.336103 0.493732 1.101807
H 5.328017 0.539437 -0.394198
C -2.739197 -0.354151 -0.645552
F -3.351121 0.831287 -0.782169
F -1.732372 -0.406682 -1.518041
F -3.609437 -1.322856 -0.931553
C -1.77178 -1.058688 1.363962
H -2.739512 -1.031725 1.859396

