%nprocshared=8
%mem=16GB
%chk=ccpvdz_Radical-0005_IRCforward_Complex.chk
# opt=calcfc freq m062x cc-pvdz empiricaldispersion=gd3 

ccpvdz_Radical-0005_IRCforward_Complex optfreq

0 2
C 1.053378 3.217611 -0.278655
C 2.075184 2.554162 0.373314
C 1.776297 1.314388 0.960067
C 0.479791 0.767602 0.887271
C -0.555426 1.449115 0.216524
C -0.254049 2.673254 -0.359457
H 1.224685 4.183060 -0.754447
H 3.075460 2.985996 0.424131
H -1.548195 1.000611 0.156300
C 0.503096 -0.493887 1.579524
N 2.557257 0.423142 1.667954
H 3.530219 0.553199 1.901205
C -0.675391 -1.411239 1.662103
H -0.502748 -2.220557 2.387178
H -1.553346 -0.839175 2.003257
C -1.012776 -1.994931 0.278443
H -0.303674 -2.789184 0.008964
H -0.924799 -1.200575 -0.476341
N -2.363541 -2.518574 0.190976
H -2.542357 -3.490656 0.402851
C -3.417762 -1.674671 0.027212
C -4.788815 -2.316175 0.046434
H -5.280901 -2.062102 0.995752
H -5.384488 -1.878420 -0.763373
H -4.758134 -3.407688 -0.063693
O -3.272212 -0.469961 -0.122141
O -1.155821 3.437069 -1.036345
C -2.466291 2.919189 -1.128839
H -2.920105 2.794260 -0.131730
H -3.043153 3.648575 -1.708049
H -2.481901 1.940913 -1.636232
C 2.146932 -1.141338 -1.020638
F 2.183698 -2.410435 -0.640904
F 1.290340 -0.980859 -2.008259
F 3.352054 -0.731552 -1.366800
C 1.785598 -0.656987 2.040780
H 2.219210 -1.476734 2.607242

--Link1--
%nprocshared=8
%mem=16GB
%chk=ccpvdz_Radical-0005_IRCforward_Complex.chk
# m062x cc-pvtz empiricaldispersion=gd3  Geom=Checkpoint

ccpvdz_Radical-0005_IRCforward_Complex E_ccpvtz

0 2

--Link1--
%nprocshared=8
%mem=16GB
%chk=ccpvdz_Radical-0005_IRCforward_Complex.chk
# m062x cc-pvqz empiricaldispersion=gd3  Geom=Checkpoint

ccpvdz_Radical-0005_IRCforward_Complex E_ccpvqz

0 2

