%nprocshared=8
%mem=16GB
%chk=ccpvdz_Radical-0045_IRCforward_Complex_R2.chk
# opt=calcfc freq m062x cc-pvdz empiricaldispersion=gd3 

ccpvdz_Radical-0045_IRCforward_Complex_R2 optfreq

0 1
 C      -3.32762100     -1.01434300      1.08647200
 C      -2.26834900     -0.74061700      1.94395500
 C      -1.01146700     -0.50533800      1.38634700
 C      -0.80212600     -0.54871600     -0.01489100
 C      -1.88217200     -0.81464600     -0.86646600
 C      -3.13545500     -1.04930500     -0.31271100
 H      -4.31192000     -1.19769100      1.51252900
 H      -2.42805100     -0.70901500      3.02240400
 H      -1.77459700     -0.84001100     -1.95131800
 C       0.58878900     -0.25072100     -0.24743500
 N       0.19908600     -0.19836000      1.96946800
 H       0.37219200     -0.12332400      2.96056700
 C       1.22592000     -0.08488900     -1.59342100
 H       1.00927500     -0.96669200     -2.22304900
 H       0.76040700      0.77088100     -2.11257600
 C       2.73409200      0.15144000     -1.55232800
 H       2.98011200      0.97592100     -0.86992600
 H       3.08735200      0.43061300     -2.55672500
 N       3.47718100     -1.00482800     -1.08637300
 H       3.37895900     -1.87201300     -1.59920100
 C       4.20723900     -1.01867500      0.06224100
 C       4.82425500     -2.35760000      0.41066800
 H       4.10039100     -2.93423600      1.00531600
 H       5.09090600     -2.94219200     -0.47983300
 H       5.71403000     -2.18111200      1.02412400
 O       4.33529100     -0.03973400      0.78154900
 O      -4.13924200     -1.30640800     -1.20402600
 C      -5.42738700     -1.53224100     -0.68637000
 H      -5.45291300     -2.41706500     -0.02775900
 H      -5.80035100     -0.65810900     -0.12606100
 H      -6.07785400     -1.70929100     -1.55034500
 C       1.15396400     -0.05067600      0.98924300
 H       2.18094800      0.20354100      1.24763200

--Link1--
%nprocshared=8
%mem=16GB
%chk=ccpvdz_Radical-0045_IRCforward_Complex_R2.chk
# m062x cc-pvtz empiricaldispersion=gd3 Geom=Checkpoint

ccpvdz_Radical-0045_IRCforward_Complex_R2 E_ccpvtz

0 1

--Link1--
%nprocshared=8
%mem=16GB
%chk=ccpvdz_Radical-0045_IRCforward_Complex_R2.chk
# m062x cc-pvqz empiricaldispersion=gd3 Geom=Checkpoint

ccpvdz_Radical-0045_IRCforward_Complex_R2 E_ccpvqz

0 1

