%nprocshared=8
%mem=16GB
%chk=ccpvdz_Radical-0047_SP.chk
# opt=(calcfc,ts,noeigentest) freq m062x cc-pvdz empiricaldispersion=gd3 

ccpvdz_Radical-0047_SP cc-pVTZ_SP

0 2
C 3.704972 1.10565 0.539835
C 2.769429 2.032424 0.128307
C 1.600493 1.553968 -0.480477
C 1.366895 0.16946 -0.656298
C 2.347796 -0.764205 -0.247321
C 3.504063 -0.285431 0.346998
H 4.633911 1.414642 1.018334
H 2.941136 3.09992 0.269432
H 2.191834 -1.828462 -0.4138
C 0.086364 0.029095 -1.285186
N 0.536006 2.235682 -1.024554
H 0.347622 3.218424 -0.882325
C -0.585046 -1.241901 -1.700679
H -1.540476 -1.02277 -2.199396
H 0.048615 -1.775489 -2.42971
C -0.872468 -2.195524 -0.53145
H 0.05881 -2.466582 -0.014497
H -1.331159 -3.111359 -0.927531
N -1.784111 -1.645647 0.448204
H -1.420005 -1.099801 1.217719
C -3.134155 -1.724138 0.256612
C -3.985167 -1.182548 1.385629
H -3.432204 -0.506784 2.049648
H -4.843396 -0.656251 0.952687
H -4.364968 -2.033815 1.968525
O -3.612568 -2.243847 -0.73659
O 4.527269 -1.067393 0.789664
C 4.386394 -2.458187 0.622806
H 3.505881 -2.841255 1.165958
H 4.295237 -2.728398 -0.442736
H 5.293573 -2.911821 1.036234
C -1.844404 1.638591 0.382742
F -1.802111 2.967861 0.500127
F -3.087897 1.268314 0.097967
F -1.473398 1.097065 1.54579
C -0.416264 1.318963 -1.431881
H -1.268036 1.633023 -2.031447

--Link1--
%nprocshared=8
%mem=16GB
%chk=ccpvdz_Radical-0047_SP.chk
# m062x cc-pvtz empiricaldispersion=gd3  Geom=Checkpoint 

ccpvdz_Radical-0047_SP cc-pVQT_SP

0 2

--Link1--
%nprocshared=8
%mem=16GB
%chk=ccpvdz_Radical-0047_SP.chk
# m062x cc-pvqz empiricaldispersion=gd3  Geom=Checkpoint 

ccpvdz_Radical-0047_SP cc-pVQZ_SP

0 2

