%nprocshared=12
%mem=12GB
# irc=(forward,phase=(32,36),calcfc,maxpoints=100,recalc=3,Tight) m062x cc-pvdz empiricaldispersion=gd3 

ccpvdz_Radical-0018_IRCforward.gjf IRCforward

0 2
C 0.946965 -2.899406 0.568243
C -0.188789 -2.554811 1.271499
C -0.702165 -1.263436 1.08996
C -0.097684 -0.334104 0.20882
C 1.06385 -0.709645 -0.507183
C 1.577516 -1.982312 -0.312439
H 1.397422 -3.886417 0.669719
H -0.665391 -3.265296 1.947659
H 1.552761 -0.008743 -1.179358
C -0.864381 0.876508 0.281475
N -1.777123 -0.645495 1.689431
H -2.453927 -1.10343 2.282519
C -0.692833 2.169764 -0.462011
H -1.164425 2.10286 -1.456561
H -1.248742 2.95288 0.078881
C 0.761062 2.616967 -0.664502
H 0.770138 3.678019 -0.959828
H 1.245522 2.063754 -1.479641
N 1.571892 2.404736 0.520464
H 1.090255 2.362341 1.411331
C 2.791855 1.79778 0.442195
C 3.349901 1.30377 1.757426
H 3.020193 1.911918 2.610165
H 2.99955 0.269558 1.902834
H 4.443551 1.297348 1.699732
O 3.371951 1.631853 -0.619916
O 2.694451 -2.459708 -0.919317
C 3.376261 -1.574078 -1.787765
H 2.746815 -1.31151 -2.655012
H 3.674813 -0.647627 -1.271889
H 4.262857 -2.114984 -2.135791
C -3.482724 0.118775 -0.480964
F -3.463811 0.988736 -1.488626
F -3.108403 -1.075608 -0.916434
F -4.720727 0.04238 0.010895
C -1.924049 0.614568 1.150921
H -2.618207 1.325877 1.593275

