%nprocshared=8
%mem=16GB
%chk=ccpvdz_Radical-0044_IRCforward_Complex_R2.chk
# opt=calcfc freq m062x cc-pvdz empiricaldispersion=gd3 

ccpvdz_Radical-0044_IRCforward_Complex_R2 optfreq

0 1
 C      -3.32767300     -1.01431500      1.08645900
 C      -2.26839600     -0.74063500      1.94395100
 C      -1.01150900     -0.50536300      1.38634900
 C      -0.80216900     -0.54870900     -0.01489100
 C      -1.88222000     -0.81459500     -0.86647300
 C      -3.13550800     -1.04924200     -0.31272500
 H      -4.31197600     -1.19765400      1.51251100
 H      -2.42809700     -0.70906000      3.02240000
 H      -1.77464500     -0.83993400     -1.95132600
 C       0.58875200     -0.25073800     -0.24742700
 N       0.19905100     -0.19842400      1.96947700
 H       0.37215900     -0.12342300      2.96057900
 C       1.22588300     -0.08487400     -1.59340900
 H       1.00922400     -0.96665200     -2.22306600
 H       0.76038300      0.77091500     -2.11254200
 C       2.73405200      0.15144200     -1.55230600
 H       2.98006300      0.97590100     -0.86987600
 H       3.08731500      0.43064600     -2.55669400
 N       3.47713900     -1.00484300     -1.08639100
 H       3.37890700     -1.87201100     -1.59924600
 C       4.20719300     -1.01873600      0.06222500
 C       4.82419900     -2.35768000      0.41060000
 H       5.71393800     -2.18122700      1.02411900
 H       4.10030400     -2.93436300      1.00516500
 H       5.09090500     -2.94220700     -0.47992600
 O       4.33525300     -0.03982300      0.78156800
 O      -4.13930000     -1.30629500     -1.20404800
 C      -5.42744600     -1.53213900     -0.68639800
 H      -5.80040900     -0.65802300     -0.12606500
 H      -6.07791300     -1.70916600     -1.55037800
 H      -5.45297300     -2.41698200     -0.02781100
 C       1.15393100     -0.05073400      0.98925600
 H       2.18091900      0.20345900      1.24765100

--Link1--
%nprocshared=8
%mem=16GB
%chk=ccpvdz_Radical-0044_IRCforward_Complex_R2.chk
# m062x cc-pvtz empiricaldispersion=gd3 Geom=Checkpoint

ccpvdz_Radical-0044_IRCforward_Complex_R2 E_ccpvtz

0 1

--Link1--
%nprocshared=8
%mem=16GB
%chk=ccpvdz_Radical-0044_IRCforward_Complex_R2.chk
# m062x cc-pvqz empiricaldispersion=gd3 Geom=Checkpoint

ccpvdz_Radical-0044_IRCforward_Complex_R2 E_ccpvqz

0 1

