%nprocshared=8
%mem=16GB
%chk=ccpvdz_Radical-0007_SP.chk
# opt=(calcfc,ts,noeigentest) freq m062x cc-pvdz empiricaldispersion=gd3 

ccpvdz_Radical-0007_SP cc-pVTZ_SP

0 2
C 2.276294 -1.788891 0.881303
C 1.153155 -1.549701 1.666127
C 0.128966 -0.767194 1.134598
C 0.213429 -0.22678 -0.175922
C 1.351567 -0.483759 -0.957354
C 2.373672 -1.260491 -0.427024
H 3.081286 -2.395097 1.291663
H 1.089013 -1.962482 2.673267
H 1.46001 -0.100474 -1.972939
C -0.968179 0.549223 -0.394553
N -1.058617 -0.338407 1.681929
H -1.401693 -0.577582 2.60017
C -1.224261 1.471204 -1.541627
H -0.732447 1.078872 -2.446504
H -2.299857 1.527585 -1.768011
C -0.696388 2.888263 -1.234585
H -1.301011 3.344284 -0.440059
H -0.763036 3.523605 -2.129941
N 0.66846 2.885769 -0.743541
H 1.394905 2.560046 -1.370926
C 0.920272 2.763011 0.601781
C 2.349508 2.415799 0.958504
H 2.604108 2.909496 1.903155
H 2.407534 1.325744 1.108289
H 3.065469 2.70303 0.177086
O 0.058347 2.918586 1.447871
O 3.449821 -1.463885 -1.242542
C 4.499447 -2.263068 -0.751012
H 4.15575 -3.283628 -0.513062
H 5.246296 -2.312288 -1.551154
H 4.96121 -1.820462 0.147819
C -3.136609 -1.235587 -0.159084
F -4.248664 -1.466955 0.539257
F -3.46009 -0.944115 -1.415967
F -2.367804 -2.31525 -0.133836
C -1.741176 0.413451 0.75302
H -2.61094 0.994197 1.049677

--Link1--
%nprocshared=8
%mem=16GB
%chk=ccpvdz_Radical-0007_SP.chk
# m062x cc-pvtz empiricaldispersion=gd3  Geom=Checkpoint 

ccpvdz_Radical-0007_SP cc-pVQT_SP

0 2

--Link1--
%nprocshared=8
%mem=16GB
%chk=ccpvdz_Radical-0007_SP.chk
# m062x cc-pvqz empiricaldispersion=gd3  Geom=Checkpoint 

ccpvdz_Radical-0007_SP cc-pVQZ_SP

0 2

