%nprocshared=8
%mem=16GB
%chk=ccpvdz_Radical-0002_IRCreverse_Product.chk
# opt=calcfc freq m062x cc-pvdz empiricaldispersion=gd3 

ccpvdz_Radical-0002_IRCreverse_Product optfreq

0 2
C 2.344227 -2.422826 -0.438852
C 1.026919 -2.869561 -0.341498
C 0.085133 -2.019334 0.223086
C 0.451264 -0.729776 0.705001
C 1.801065 -0.305314 0.642017
C 2.725735 -1.148764 0.044738
H 3.116621 -3.042186 -0.893638
H 0.748526 -3.858226 -0.707265
H 2.068479 0.688147 0.996086
C -0.700609 -0.079452 1.173331
N -1.266293 -2.241979 0.482161
H -1.789491 -2.842859 -0.147109
C -0.747261 1.239778 1.871183
H -1.437017 1.197823 2.730932
H 0.258207 1.435158 2.270684
C -1.148621 2.457750 0.996840
H -0.755980 3.367680 1.470097
H -2.238111 2.548248 0.929222
N -0.630660 2.394198 -0.355243
H -1.191492 1.917466 -1.051569
C 0.708840 2.489886 -0.586103
C 1.155139 2.101395 -1.977015
H 0.372772 2.260664 -2.730626
H 2.050902 2.676598 -2.236758
H 1.418020 1.031519 -1.958763
O 1.493108 2.839101 0.285239
O 4.032686 -0.827058 -0.143570
C 4.431658 0.459826 0.283954
H 3.820697 1.250876 -0.181985
H 4.349600 0.557329 1.379277
H 5.479578 0.569766 -0.014958
C -2.665042 -0.448723 -0.355376
F -3.282284 0.712867 -0.083741
F -1.881897 -0.237613 -1.427151
F -3.610497 -1.325149 -0.731215
C -1.875932 -0.968640 0.843406
H -2.603275 -1.068465 1.668397

--Link1--
%nprocshared=8
%mem=16GB
%chk=ccpvdz_Radical-0002_IRCreverse_Product.chk
# m062x cc-pvtz empiricaldispersion=gd3  Geom=Checkpoint

ccpvdz_Radical-0002_IRCreverse_Product E_ccpvtz

0 2

--Link1--
%nprocshared=8
%mem=16GB
%chk=ccpvdz_Radical-0002_IRCreverse_Product.chk
# m062x cc-pvqz empiricaldispersion=gd3  Geom=Checkpoint

ccpvdz_Radical-0002_IRCreverse_Product E_ccpvqz

0 2

