%nprocshared=8
%mem=16GB
%chk=ccpvdz_Radical-0004_IRCforward_Complex.chk
# opt=calcfc freq m062x cc-pvdz empiricaldispersion=gd3 

ccpvdz_Radical-0004_IRCforward_Complex optfreq

0 2
C 1.946094 -2.081863 1.268988
C 0.891193 -1.568357 1.996433
C 0.057814 -0.630692 1.369357
C 0.275458 -0.220584 0.035521
C 1.351039 -0.767027 -0.700072
C 2.176953 -1.688119 -0.073558
H 2.632804 -2.807651 1.703507
H 0.724055 -1.879046 3.028401
H 1.512974 -0.465910 -1.734679
C -0.713737 0.774805 -0.272078
N -1.025469 0.072442 1.843663
H -1.380641 0.033355 2.787413
C -0.750043 1.626506 -1.502825
H -0.357086 1.052854 -2.358552
H -1.783081 1.901600 -1.764677
C 0.078112 2.912465 -1.309610
H -0.421164 3.568369 -0.584827
H 0.172649 3.456262 -2.261516
N 1.397384 2.655718 -0.762521
H 2.018140 2.061525 -1.300522
C 1.596002 2.658099 0.599064
C 2.883347 2.005772 1.056286
H 2.672723 0.947609 1.280776
H 3.673253 2.052350 0.294300
H 3.218459 2.498157 1.975857
O 0.800266 3.147392 1.378850
O 3.257448 -2.282814 -0.656817
C 3.555836 -1.906402 -1.978101
H 4.448322 -2.471834 -2.267592
H 2.728789 -2.151263 -2.665763
H 3.770457 -0.825600 -2.049761
C -3.297407 -0.972765 -0.357150
F -2.458478 -1.961893 -0.136240
F -4.529215 -1.319348 -0.021039
F -3.254609 -0.587647 -1.620202
C -1.470575 0.926152 0.865601
H -2.283631 1.619140 1.063846

--Link1--
%nprocshared=8
%mem=16GB
%chk=ccpvdz_Radical-0004_IRCforward_Complex.chk
# m062x cc-pvtz empiricaldispersion=gd3  Geom=Checkpoint

ccpvdz_Radical-0004_IRCforward_Complex E_ccpvtz

0 2

--Link1--
%nprocshared=8
%mem=16GB
%chk=ccpvdz_Radical-0004_IRCforward_Complex.chk
# m062x cc-pvqz empiricaldispersion=gd3  Geom=Checkpoint

ccpvdz_Radical-0004_IRCforward_Complex E_ccpvqz

0 2

