%nprocshared=8
%mem=16GB
%chk=ccpvdz_Radical-0008_IRCforward_Complex_R2.chk
# opt=calcfc freq m062x cc-pvdz empiricaldispersion=gd3 

ccpvdz_Radical-0008_IRCforward_Complex_R2 optfreq

0 1
 C      -0.89474600     -2.09138300      1.58174000
 C      -0.79093600     -0.88659700      2.24686700
 C      -0.35365000      0.22883000      1.51708800
 C      -0.01595100      0.13303000      0.14917000
 C      -0.14638700     -1.10323300     -0.52153200
 C      -0.58523300     -2.20156900      0.20227100
 H      -1.22908800     -2.99315800      2.09364900
 H      -1.04485500     -0.81182900      3.30489200
 H       0.07676900     -1.17166000     -1.58578900
 C       0.38568200      1.44367100     -0.28560100
 N      -0.18219700      1.54178800      1.88975600
 H      -0.30413800      1.90695500      2.82253600
 C       0.98023900      1.77635500     -1.61824500
 H       0.51146200      1.14983600     -2.39547700
 H       0.77130300      2.82102700     -1.89467400
 C       2.50674700      1.56153400     -1.61969400
 H       2.98460000      2.30608300     -0.97006200
 H       2.90918700      1.67827600     -2.63718800
 N       2.89639300      0.26957500     -1.08747900
 H       2.55307500     -0.55648100     -1.56384000
 C       3.17340800      0.12564100      0.25245500
 C       3.19014800     -1.30352600      0.75156200
 H       3.93699300     -1.38766300      1.54902900
 H       2.19862500     -1.52888000      1.17584100
 H       3.40529500     -2.02941200     -0.04430700
 O       3.39017600      1.07316900      0.98387900
 O      -0.75678000     -3.45106100     -0.31605200
 C      -0.46999700     -3.61772300     -1.68245900
 H      -0.66780700     -4.66981900     -1.91462900
 H      -1.11134000     -2.97687800     -2.31081900
 H       0.58755400     -3.38915500     -1.90278400
 C       0.27059500      2.26132000      0.81097800
 H       0.50641200      3.31694700      0.91063400

--Link1--
%nprocshared=8
%mem=16GB
%chk=ccpvdz_Radical-0008_IRCforward_Complex_R2.chk
# m062x cc-pvtz empiricaldispersion=gd3 Geom=Checkpoint

ccpvdz_Radical-0008_IRCforward_Complex_R2 E_ccpvtz

0 1

--Link1--
%nprocshared=8
%mem=16GB
%chk=ccpvdz_Radical-0008_IRCforward_Complex_R2.chk
# m062x cc-pvqz empiricaldispersion=gd3 Geom=Checkpoint

ccpvdz_Radical-0008_IRCforward_Complex_R2 E_ccpvqz

0 1

