%nprocshared=8
%mem=16GB
%chk=ccpvdz_Radical-0008_IRCreverse_Product.chk
# opt=calcfc freq m062x cc-pvdz empiricaldispersion=gd3 

ccpvdz_Radical-0008_IRCreverse_Product optfreq

0 2
C -2.139816 -2.096749 -1.298313
C -0.928576 -1.718589 -1.874483
C -0.061243 -0.924649 -1.129994
C -0.402260 -0.499265 0.192536
C -1.649568 -0.877386 0.755777
C -2.496406 -1.680673 0.006175
H -2.848795 -2.724422 -1.836917
H -0.673711 -2.035134 -2.885964
H -1.904027 -0.559017 1.765378
C 0.638344 0.293776 0.683339
N 1.139082 -0.359554 -1.486421
H 1.713414 -0.710731 -2.240813
C 0.594672 1.177126 1.881011
H -0.073202 0.732201 2.636409
H 1.587869 1.271897 2.345741
C 0.083820 2.596173 1.525871
H 0.824753 3.117513 0.906413
H -0.065400 3.179861 2.445426
N -1.145376 2.578006 0.760119
H -1.983019 2.235118 1.216212
C -1.094230 2.453668 -0.606566
C -2.400038 2.084692 -1.272519
H -2.430997 2.547156 -2.265229
H -2.420398 0.989910 -1.398052
H -3.275905 2.390592 -0.685036
O -0.064346 2.623809 -1.236713
O -3.709146 -2.131883 0.433502
C -4.102253 -1.770665 1.734885
H -5.081048 -2.233199 1.901875
H -3.388088 -2.140896 2.489431
H -4.195349 -0.675629 1.838539
C 2.986187 -0.372060 0.095907
F 2.755678 -1.636472 0.456328
F 3.900286 -0.403329 -0.891715
F 3.545811 0.258110 1.140434
C 1.722178 0.342489 -0.362365
H 2.002895 1.377801 -0.628267

--Link1--
%nprocshared=8
%mem=16GB
%chk=ccpvdz_Radical-0008_IRCreverse_Product.chk
# m062x cc-pvtz empiricaldispersion=gd3  Geom=Checkpoint

ccpvdz_Radical-0008_IRCreverse_Product E_ccpvtz

0 2

--Link1--
%nprocshared=8
%mem=16GB
%chk=ccpvdz_Radical-0008_IRCreverse_Product.chk
# m062x cc-pvqz empiricaldispersion=gd3  Geom=Checkpoint

ccpvdz_Radical-0008_IRCreverse_Product E_ccpvqz

0 2

