%nprocshared=8
%mem=16GB
%chk=ccpvdz_Radical-0044_SP.chk
# opt=(calcfc,ts,noeigentest) freq m062x cc-pvdz empiricaldispersion=gd3 

ccpvdz_Radical-0044_SP cc-pVTZ_SP

0 2
C -3.617897 -0.176103 1.101027
C -2.522157 0.289229 1.820504
C -1.261321 0.197231 1.234844
C -1.084194 -0.353712 -0.06153
C -2.199955 -0.815501 -0.775017
C -3.457308 -0.726505 -0.19036
H -4.606119 -0.107118 1.551137
H -2.657881 0.715356 2.814976
H -2.115523 -1.238386 -1.776439
C 0.315009 -0.296966 -0.362695
N -0.016986 0.55622 1.70467
H 0.166995 1.029228 2.576956
C 0.950765 -0.68668 -1.660134
H 0.540997 -1.655918 -1.995056
H 0.671628 0.044145 -2.439304
C 2.476128 -0.764419 -1.616851
H 2.902449 0.172446 -1.235461
H 2.861925 -0.91308 -2.636733
N 2.968739 -1.824357 -0.757278
H 2.721898 -2.779183 -0.984702
C 3.672934 -1.598272 0.385345
C 4.029937 -2.840269 1.175116
H 4.951262 -2.642993 1.733356
H 3.224688 -3.041475 1.896817
H 4.158896 -3.724215 0.536696
O 3.974758 -0.478483 0.770091
O -4.496135 -1.197508 -0.941918
C -5.789999 -1.103476 -0.396969
H -6.071008 -0.056105 -0.194683
H -6.469638 -1.519309 -1.149181
H -5.882781 -1.686124 0.535266
C 1.00395 2.420437 -0.251262
F 1.578599 2.356096 -1.454435
F -0.269718 2.762434 -0.388128
F 1.630856 3.333138 0.48701
C 0.927809 0.324784 0.724475
H 1.991141 0.403948 0.950251

--Link1--
%nprocshared=8
%mem=16GB
%chk=ccpvdz_Radical-0044_SP.chk
# m062x cc-pvtz empiricaldispersion=gd3  Geom=Checkpoint 

ccpvdz_Radical-0044_SP cc-pVQT_SP

0 2

--Link1--
%nprocshared=8
%mem=16GB
%chk=ccpvdz_Radical-0044_SP.chk
# m062x cc-pvqz empiricaldispersion=gd3  Geom=Checkpoint 

ccpvdz_Radical-0044_SP cc-pVQZ_SP

0 2

