%nprocshared=8
%mem=16GB
%chk=ccpvdz_Radical-0004_SP.chk
# opt=(calcfc,ts,noeigentest) freq m062x cc-pvdz empiricaldispersion=gd3 

ccpvdz_Radical-0004_SP cc-pVTZ_SP

0 2
C 1.894971 -2.129694 1.279342
C 0.77898 -1.669707 1.950255
C -0.059733 -0.766604 1.282725
C 0.215145 -0.337369 -0.037441
C 1.358445 -0.824395 -0.712616
C 2.184433 -1.715608 -0.046688
H 2.586463 -2.830087 1.746794
H 0.56718 -1.997455 2.968407
H 1.564001 -0.505987 -1.733848
C -0.799383 0.598851 -0.401555
N -1.1983 -0.120404 1.700504
H -1.643617 -0.238561 2.59839
C -0.814006 1.46984 -1.615282
H -0.322244 0.947274 -2.452111
H -1.84587 1.6752 -1.938392
C -0.093258 2.805965 -1.340094
H -0.676967 3.400933 -0.625916
H 0.010906 3.384112 -2.270048
N 1.21178 2.625844 -0.732946
H 1.922319 2.148643 -1.275658
C 1.335489 2.553872 0.634571
C 2.657369 2.009797 1.131382
H 2.531012 0.93325 1.32925
H 3.471453 2.14265 0.406189
H 2.909235 2.508075 2.074263
O 0.447607 2.899791 1.392206
O 3.316532 -2.263573 -0.572374
C 3.655092 -1.888801 -1.884973
H 4.577455 -2.425414 -2.132243
H 2.864715 -2.16895 -2.601486
H 3.835129 -0.802051 -1.959271
C -3.241908 -0.80051 -0.267034
F -2.646489 -1.979593 -0.152369
F -4.424817 -0.840895 0.347253
F -3.426333 -0.515978 -1.554345
C -1.675443 0.666193 0.677979
H -2.457038 1.397752 0.86585

--Link1--
%nprocshared=8
%mem=16GB
%chk=ccpvdz_Radical-0004_SP.chk
# m062x cc-pvtz empiricaldispersion=gd3  Geom=Checkpoint 

ccpvdz_Radical-0004_SP cc-pVQT_SP

0 2

--Link1--
%nprocshared=8
%mem=16GB
%chk=ccpvdz_Radical-0004_SP.chk
# m062x cc-pvqz empiricaldispersion=gd3  Geom=Checkpoint 

ccpvdz_Radical-0004_SP cc-pVQZ_SP

0 2

