%nprocshared=8
%mem=16GB
%chk=ccpvdz_Radical-0003_IRCforward_Complex.chk
# opt=calcfc freq m062x cc-pvdz empiricaldispersion=gd3 

ccpvdz_Radical-0003_IRCforward_Complex optfreq

0 2
C -3.576029 -1.320421 -0.421379
C -2.475676 -1.824116 -1.085561
C -1.346705 -1.000184 -1.197821
C -1.322775 0.300960 -0.650498
C -2.454743 0.800424 0.028096
C -3.571728 -0.015525 0.130658
H -4.484478 -1.910603 -0.304318
H -2.492408 -2.829453 -1.508141
H -2.439234 1.807392 0.442894
C -0.030973 0.863038 -0.944990
N -0.125579 -1.213920 -1.798672
H 0.151639 -2.053498 -2.285134
C 0.453417 2.212892 -0.512712
H -0.068165 3.007627 -1.072631
H 0.186939 2.370473 0.548544
C 1.957272 2.418422 -0.685434
H 2.210186 3.466096 -0.459016
H 2.264561 2.218155 -1.720345
N 2.751756 1.537400 0.150119
H 2.642400 1.595433 1.154823
C 3.661400 0.653178 -0.349427
C 4.487247 -0.075027 0.690131
H 3.988577 -0.128867 1.666182
H 4.692368 -1.085932 0.321229
H 5.446190 0.451048 0.803717
O 3.824004 0.478155 -1.547229
O -4.737087 0.341140 0.744813
C -4.800415 1.637952 1.285498
H -4.044254 1.783595 2.075771
H -4.654777 2.406560 0.507425
H -5.801376 1.744187 1.718127
C 0.974602 -1.044914 1.220819
F 1.453326 -0.246740 2.171162
F 0.116770 -1.901084 1.728369
F 1.967561 -1.677318 0.618926
C 0.657882 -0.092788 -1.655606
H 1.677651 -0.073138 -2.037361

--Link1--
%nprocshared=8
%mem=16GB
%chk=ccpvdz_Radical-0003_IRCforward_Complex.chk
# m062x cc-pvtz empiricaldispersion=gd3  Geom=Checkpoint

ccpvdz_Radical-0003_IRCforward_Complex E_ccpvtz

0 2

--Link1--
%nprocshared=8
%mem=16GB
%chk=ccpvdz_Radical-0003_IRCforward_Complex.chk
# m062x cc-pvqz empiricaldispersion=gd3  Geom=Checkpoint

ccpvdz_Radical-0003_IRCforward_Complex E_ccpvqz

0 2

