%nprocshared=8
%mem=16GB
%chk=ccpvdz_Radical-0001_IRCforward_Complex.chk
# opt=calcfc freq m062x cc-pvdz empiricaldispersion=gd3 

ccpvdz_Radical-0001_IRCforward_Complex optfreq

0 2
C 2.103455 -2.426737 -0.668352
C 0.849377 -2.919967 -0.376827
C 0.004453 -2.129316 0.415916
C 0.404022 -0.867527 0.912196
C 1.694278 -0.380538 0.601567
C 2.526756 -1.162320 -0.185737
H 2.806627 -2.991956 -1.279510
H 0.529072 -3.892091 -0.753825
H 2.021876 0.594409 0.953070
C -0.708490 -0.339969 1.667315
N -1.282925 -2.363104 0.846815
H -1.813708 -3.204498 0.677786
C -0.825077 0.950053 2.433705
H -1.896613 1.180822 2.552300
H -0.427240 0.829555 3.454990
C -0.113144 2.159946 1.815462
H 0.974174 2.103800 1.950336
H -0.445456 3.071281 2.339164
N -0.343924 2.270922 0.390435
H -1.247072 1.993970 0.028133
C 0.669143 2.486796 -0.492054
C 0.306492 2.297504 -1.947541
H 0.627649 1.286212 -2.239598
H -0.771387 2.389393 -2.134723
H 0.861358 3.025750 -2.549526
O 1.803157 2.772796 -0.134454
O 3.784283 -0.806388 -0.560060
C 4.247689 0.455379 -0.117977
H 3.587154 1.271446 -0.450674
H 4.320651 0.484185 0.982826
H 5.247509 0.577930 -0.548719
C -2.748857 -0.194275 -0.867855
F -1.595390 -0.207267 -1.498162
F -3.707573 -0.700186 -1.616782
F -3.059335 1.048132 -0.503052
C -1.701284 -1.290247 1.598031
H -2.691297 -1.278558 2.047593

--Link1--
%nprocshared=8
%mem=16GB
%chk=ccpvdz_Radical-0001_IRCforward_Complex.chk
# m062x cc-pvtz empiricaldispersion=gd3  Geom=Checkpoint

ccpvdz_Radical-0001_IRCforward_Complex E_ccpvtz

0 2

--Link1--
%nprocshared=8
%mem=16GB
%chk=ccpvdz_Radical-0001_IRCforward_Complex.chk
# m062x cc-pvqz empiricaldispersion=gd3  Geom=Checkpoint

ccpvdz_Radical-0001_IRCforward_Complex E_ccpvqz

0 2

