%nprocshared=8
%mem=16GB
%chk=ccpvdz_Radical-0006_IRCreverse_Product.chk
# opt=calcfc freq m062x cc-pvdz empiricaldispersion=gd3 

ccpvdz_Radical-0006_IRCreverse_Product optfreq

0 2
C 2.502879 -1.756122 0.886500
C 1.293070 -1.600940 1.582538
C 0.258752 -0.905426 0.978895
C 0.415498 -0.348864 -0.331076
C 1.643293 -0.492462 -1.006339
C 2.673910 -1.203540 -0.397022
H 3.309537 -2.310784 1.361263
H 1.181314 -2.019256 2.582864
H 1.804465 -0.090426 -2.007084
C -0.779834 0.297941 -0.680870
N -0.978031 -0.551981 1.474081
H -1.435317 -1.080144 2.206097
C -0.976571 1.243908 -1.812556
H -0.321734 0.948580 -2.648097
H -2.011738 1.211692 -2.184916
C -0.648867 2.702279 -1.403633
H -1.399524 3.069697 -0.692334
H -0.670278 3.350264 -2.291278
N 0.633883 2.829315 -0.743901
H 1.469604 2.655464 -1.290566
C 0.724820 2.618187 0.609487
C 2.125718 2.427584 1.144023
H 2.889819 2.890582 0.505860
H 2.174475 2.844106 2.156278
H 2.320377 1.344452 1.203958
O -0.259640 2.579481 1.328144
O 3.823600 -1.316420 -1.124163
C 4.872000 -2.072859 -0.566589
H 5.236851 -1.629471 0.375355
H 4.562867 -3.114406 -0.376953
H 5.681444 -2.065119 -1.304912
C -2.919257 -0.799004 0.026827
F -2.504856 -1.982593 -0.432049
F -3.732418 -1.043803 1.071390
F -3.660315 -0.222546 -0.931741
C -1.762344 0.098898 0.443558
H -2.191285 1.053124 0.798530

--Link1--
%nprocshared=8
%mem=16GB
%chk=ccpvdz_Radical-0006_IRCreverse_Product.chk
# m062x cc-pvtz empiricaldispersion=gd3  Geom=Checkpoint

ccpvdz_Radical-0006_IRCreverse_Product E_ccpvtz

0 2

--Link1--
%nprocshared=8
%mem=16GB
%chk=ccpvdz_Radical-0006_IRCreverse_Product.chk
# m062x cc-pvqz empiricaldispersion=gd3  Geom=Checkpoint

ccpvdz_Radical-0006_IRCreverse_Product E_ccpvqz

0 2

