%nprocshared=8
%mem=16GB
%chk=ccpvdz_Radical-0007_IRCforward_Complex_R2.chk
# opt=calcfc freq m062x cc-pvdz empiricaldispersion=gd3 

ccpvdz_Radical-0007_IRCforward_Complex_R2 optfreq

0 1
 C      -1.35459400     -2.00580000      1.09946100
 C      -1.02283300     -0.95334200      1.94407200
 C      -0.31939000      0.12730500      1.41071000
 C       0.06320500      0.16216500      0.04579500
 C      -0.29585600     -0.89983300     -0.79726600
 C      -0.99947900     -1.97531800     -0.26866600
 H      -1.90224700     -2.85240100      1.50816500
 H      -1.31243700     -0.98088900      2.99513900
 H      -0.05461200     -0.90799400     -1.86144100
 C       0.76285800      1.40203100     -0.17108400
 N       0.11316300      1.30196600      1.98449600
 H       0.02860100      1.54393600      2.96032000
 C       1.48949400      1.78202100     -1.42304900
 H       0.94013100      1.39285400     -2.29630500
 H       1.52885400      2.87551200     -1.54172300
 C       2.93033200      1.23348300     -1.42065500
 H       3.52102700      1.75257800     -0.65489500
 H       3.40510600      1.40049400     -2.39916000
 N       2.99872500     -0.17513700     -1.08157500
 H       2.52091000     -0.82881400     -1.69127800
 C       3.15966300     -0.56855100      0.22591900
 C       2.84627700     -2.02445500      0.49874500
 H       3.51842100     -2.38559400      1.28536100
 H       1.81034100     -2.08630100      0.86855900
 H       2.93767400     -2.65486000     -0.39576600
 O       3.52640200      0.19251900      1.10180500
 O      -1.30871700     -2.97263200     -1.14895900
 C      -2.05280900     -4.06384100     -0.66217100
 H      -3.03144900     -3.74375800     -0.26691600
 H      -2.21031700     -4.73177900     -1.51635300
 H      -1.50735700     -4.60886200      0.12680000
 C       0.76913700      2.05099500      1.03662600
 H       1.22374300      3.00090500      1.30362400

--Link1--
%nprocshared=8
%mem=16GB
%chk=ccpvdz_Radical-0007_IRCforward_Complex_R2.chk
# m062x cc-pvtz empiricaldispersion=gd3 Geom=Checkpoint

ccpvdz_Radical-0007_IRCforward_Complex_R2 E_ccpvtz

0 1

--Link1--
%nprocshared=8
%mem=16GB
%chk=ccpvdz_Radical-0007_IRCforward_Complex_R2.chk
# m062x cc-pvqz empiricaldispersion=gd3 Geom=Checkpoint

ccpvdz_Radical-0007_IRCforward_Complex_R2 E_ccpvqz

0 1

