%nprocshared=8
%mem=16GB
%chk=ccpvdz_Radical-0048_IRCforward_Complex.chk
# opt=calcfc freq m062x cc-pvdz empiricaldispersion=gd3 

ccpvdz_Radical-0048_IRCforward_Complex optfreq

0 2
C -3.089942 0.223648 1.097288
C -1.964943 0.438052 1.883525
C -0.710795 0.289204 1.292356
C -0.570836 -0.062420 -0.072020
C -1.714779 -0.274458 -0.851861
C -2.965644 -0.134516 -0.263828
H -4.073215 0.332989 1.550292
H -2.071524 0.709892 2.934239
H -1.659135 -0.557332 -1.903532
C 0.839932 -0.131298 -0.351925
N 0.557814 0.418072 1.817798
H 0.773982 0.665398 2.771387
C 1.469047 -0.545793 -1.642976
H 0.914889 -0.113022 -2.491141
H 2.495699 -0.149056 -1.706405
C 1.504303 -2.075792 -1.793540
H 1.921829 -2.354075 -2.772669
H 0.488498 -2.485692 -1.716493
N 2.276060 -2.707546 -0.742356
H 3.263713 -2.489456 -0.687704
C 1.669752 -3.172323 0.398198
C 2.621477 -3.496415 1.533494
H 3.626376 -3.766318 1.181962
H 2.697151 -2.613234 2.185574
H 2.196882 -4.317489 2.121399
O 0.468192 -3.316001 0.496358
O -4.036180 -0.363642 -1.081619
C -5.319173 -0.295389 -0.509026
H -6.025424 -0.539554 -1.310563
H -5.436916 -1.022910 0.311812
H -5.542874 0.715387 -0.127229
C 1.576752 2.879119 -0.199957
F 0.294739 3.067485 0.022924
F 2.285341 3.908961 0.235465
F 1.810336 2.669071 -1.483327
C 1.479272 0.156902 0.828922
H 2.545417 0.204239 1.039620

--Link1--
%nprocshared=8
%mem=16GB
%chk=ccpvdz_Radical-0048_IRCforward_Complex.chk
# m062x cc-pvtz empiricaldispersion=gd3  Geom=Checkpoint

ccpvdz_Radical-0048_IRCforward_Complex E_ccpvtz

0 2

--Link1--
%nprocshared=8
%mem=16GB
%chk=ccpvdz_Radical-0048_IRCforward_Complex.chk
# m062x cc-pvqz empiricaldispersion=gd3  Geom=Checkpoint

ccpvdz_Radical-0048_IRCforward_Complex E_ccpvqz

0 2

