%nprocshared=8
%mem=16GB
%chk=ccpvdz_Radical-0002_IRCforward_Complex.chk
# opt=calcfc freq m062x cc-pvdz empiricaldispersion=gd3 

ccpvdz_Radical-0002_IRCforward_Complex optfreq

0 2
C 1.766221 -2.459969 -0.593531
C 0.552234 -2.890120 -0.094232
C -0.166666 -2.006388 0.726623
C 0.321741 -0.716203 1.022695
C 1.575236 -0.301090 0.529301
C 2.281008 -1.175815 -0.280719
H 2.369002 -3.100335 -1.237110
H 0.172053 -3.883748 -0.334699
H 1.954539 0.688150 0.780592
C -0.659688 -0.057615 1.843793
N -1.384130 -2.138160 1.359829
H -1.978130 -2.953129 1.324293
C -0.568286 1.354700 2.336271
H -1.073419 1.459527 3.308666
H 0.487488 1.620275 2.487970
C -1.187293 2.389730 1.380014
H -0.978600 3.399548 1.767451
H -2.276858 2.251773 1.342223
N -0.709982 2.295149 0.011249
H -1.372522 2.076580 -0.718785
C 0.568668 2.591461 -0.339202
C 0.903468 2.374266 -1.798925
H 0.041557 2.528746 -2.461652
H 1.720245 3.049583 -2.077085
H 1.244524 1.333499 -1.916214
O 1.403051 2.947513 0.481491
O 3.490902 -0.886346 -0.838757
C 4.085903 0.333252 -0.448425
H 3.456002 1.200901 -0.706536
H 4.271964 0.353331 0.638438
H 5.038286 0.395834 -0.986007
C -2.033713 -0.433850 -1.059790
F -2.939909 0.516229 -0.849259
F -1.206340 -0.063038 -2.017699
F -2.626698 -1.570596 -1.358548
C -1.676088 -0.965816 2.023368
H -2.598493 -0.869120 2.590319

--Link1--
%nprocshared=8
%mem=16GB
%chk=ccpvdz_Radical-0002_IRCforward_Complex.chk
# m062x cc-pvtz empiricaldispersion=gd3  Geom=Checkpoint

ccpvdz_Radical-0002_IRCforward_Complex E_ccpvtz

0 2

--Link1--
%nprocshared=8
%mem=16GB
%chk=ccpvdz_Radical-0002_IRCforward_Complex.chk
# m062x cc-pvqz empiricaldispersion=gd3  Geom=Checkpoint

ccpvdz_Radical-0002_IRCforward_Complex E_ccpvqz

0 2

