%nprocshared=8
%mem=16GB
%chk=ccpvdz_Radical-0044_IRCforward_Complex.chk
# opt=calcfc freq m062x cc-pvdz empiricaldispersion=gd3 

ccpvdz_Radical-0044_IRCforward_Complex optfreq

0 2
C -3.658290 -0.295445 1.119551
C -2.558159 0.062703 1.890354
C -1.290551 -0.038002 1.318399
C -1.111416 -0.490288 -0.012773
C -2.230602 -0.840588 -0.779226
C -3.494864 -0.747066 -0.208711
H -4.651121 -0.221837 1.558715
H -2.694799 0.410724 2.914911
H -2.144699 -1.190231 -1.808630
C 0.304439 -0.487368 -0.277665
N -0.039232 0.226727 1.831333
H 0.158055 0.528623 2.773487
C 0.941159 -0.830001 -1.589778
H 0.555625 -1.801790 -1.947692
H 0.636729 -0.089461 -2.348745
C 2.467682 -0.869718 -1.560961
H 2.874083 0.063351 -1.149596
H 2.849096 -0.975712 -2.588024
N 2.993555 -1.944027 -0.739106
H 2.726614 -2.893632 -0.966359
C 3.727025 -1.736385 0.388089
C 4.091244 -2.990997 1.154394
H 5.007449 -2.798125 1.722270
H 3.281979 -3.215542 1.864922
H 4.231326 -3.859443 0.497137
O 4.044198 -0.623315 0.779998
O -4.537452 -1.118012 -1.011494
C -5.832220 -1.058286 -0.465305
H -6.104873 -0.029833 -0.173511
H -6.513078 -1.399977 -1.253064
H -5.934617 -1.718404 0.412850
C 0.988494 2.589575 -0.275977
F 1.503465 2.265860 -1.452310
F -0.321890 2.678444 -0.348198
F 1.514171 3.718988 0.162284
C 0.913248 -0.053534 0.876659
H 1.972550 0.077960 1.093336

--Link1--
%nprocshared=8
%mem=16GB
%chk=ccpvdz_Radical-0044_IRCforward_Complex.chk
# m062x cc-pvtz empiricaldispersion=gd3  Geom=Checkpoint

ccpvdz_Radical-0044_IRCforward_Complex E_ccpvtz

0 2

--Link1--
%nprocshared=8
%mem=16GB
%chk=ccpvdz_Radical-0044_IRCforward_Complex.chk
# m062x cc-pvqz empiricaldispersion=gd3  Geom=Checkpoint

ccpvdz_Radical-0044_IRCforward_Complex E_ccpvqz

0 2

