%nprocshared=8
%mem=16GB
%chk=ccpvdz_Radical-0001_IRCreverse_Product.chk
# opt=calcfc freq m062x cc-pvdz empiricaldispersion=gd3 

ccpvdz_Radical-0001_IRCreverse_Product optfreq

0 2
C 2.246045 -2.391708 -0.650211
C 0.920266 -2.817355 -0.611753
C -0.003251 -2.028494 0.059824
C 0.386034 -0.826027 0.721274
C 1.743174 -0.420740 0.694569
C 2.651692 -1.196230 -0.012822
H 3.006600 -2.960799 -1.183787
H 0.617858 -3.739933 -1.107999
H 2.044837 0.513608 1.160226
C -0.766268 -0.234781 1.267916
N -1.365573 -2.257400 0.259089
H -1.881671 -2.742391 -0.468639
C -0.918890 0.984094 2.121851
H -1.992529 1.188626 2.246728
H -0.525163 0.795363 3.136903
C -0.222586 2.253399 1.588211
H 0.855568 2.238373 1.788966
H -0.634602 3.129713 2.112927
N -0.354851 2.400655 0.154223
H -1.248881 2.179239 -0.268267
C 0.741228 2.447208 -0.659195
C 0.457851 2.239478 -2.128832
H 0.588300 1.168052 -2.344631
H -0.562712 2.530506 -2.409485
H 1.190158 2.804892 -2.715127
O 1.872133 2.614475 -0.228483
O 3.962479 -0.883060 -0.168293
C 4.377249 0.377669 0.325839
H 3.762545 1.191654 -0.089720
H 4.320016 0.407831 1.427260
H 5.422102 0.493520 0.017889
C -2.667255 -0.288778 -0.342134
F -1.850894 -0.004137 -1.366654
F -3.684578 -1.009967 -0.837536
F -3.177427 0.882942 0.087852
C -1.949343 -1.034372 0.782031
H -2.710586 -1.227726 1.558183

--Link1--
%nprocshared=8
%mem=16GB
%chk=ccpvdz_Radical-0001_IRCreverse_Product.chk
# m062x cc-pvtz empiricaldispersion=gd3  Geom=Checkpoint

ccpvdz_Radical-0001_IRCreverse_Product E_ccpvtz

0 2

--Link1--
%nprocshared=8
%mem=16GB
%chk=ccpvdz_Radical-0001_IRCreverse_Product.chk
# m062x cc-pvqz empiricaldispersion=gd3  Geom=Checkpoint

ccpvdz_Radical-0001_IRCreverse_Product E_ccpvqz

0 2

