%nprocshared=12
%mem=12GB
# irc=(reverse,phase=(32,36),calcfc,maxpoints=100,recalc=3,Tight) m062x cc-pvdz empiricaldispersion=gd3 

ccpvdz_Radical-0048_IRCreverse.gjf IRCreverse

0 2
C -3.100345 0.291804 1.080147
C -1.956552 0.601993 1.806984
C -0.721286 0.467863 1.177474
C -0.619408 0.039738 -0.170129
C -1.780974 -0.276903 -0.887355
C -3.013183 -0.149384 -0.259519
H -4.069727 0.391521 1.564219
H -2.035684 0.937079 2.84149
H -1.751394 -0.62194 -1.921113
C 0.77182 0.029287 -0.509641
N 0.55946 0.672775 1.651818
H 0.781758 1.132397 2.523046
C 1.386409 -0.433864 -1.788525
H 0.77852 -0.10247 -2.645571
H 2.380194 0.026242 -1.911281
C 1.518502 -1.966627 -1.83364
H 1.956742 -2.28218 -2.791825
H 0.52912 -2.431547 -1.730404
N 2.321416 -2.480334 -0.742772
H 3.307009 -2.249279 -0.724153
C 1.737067 -2.885559 0.430792
C 2.699926 -3.117049 1.578373
H 3.733865 -3.283752 1.248512
H 2.668595 -2.23496 2.235185
H 2.349243 -3.978089 2.158552
O 0.538904 -3.04645 0.54811
O -4.102062 -0.470619 -1.01762
C -5.368765 -0.379912 -0.411745
H -6.09413 -0.68893 -1.172669
H -5.451106 -1.050356 0.460316
H -5.595754 0.652097 -0.094612
C 1.648233 2.679623 -0.138441
F 0.427732 3.17545 0.008625
F 2.510324 3.411439 0.572077
F 1.996604 2.718865 -1.42243
C 1.451418 0.490197 0.61276
H 2.522771 0.474617 0.803411

