%nprocshared=8
%mem=16GB
%chk=ccpvdz_Radical-0018_IRCforward_Complex.chk
# opt=calcfc freq m062x cc-pvdz empiricaldispersion=gd3 

ccpvdz_Radical-0018_IRCforward_Complex optfreq

0 2
C 0.986605 -2.824079 0.586992
C -0.063399 -2.444730 1.396749
C -0.550744 -1.136255 1.263775
C -0.008248 -0.228291 0.327420
C 1.060386 -0.639189 -0.501262
C 1.555991 -1.926214 -0.351779
H 1.416355 -3.823563 0.648743
H -0.490728 -3.140266 2.120092
H 1.504994 0.050559 -1.214890
C -0.713792 1.020451 0.492394
N -1.540030 -0.478267 1.961949
H -2.079923 -0.868564 2.719815
C -0.552777 2.304353 -0.271828
H -1.058222 2.235761 -1.248647
H -1.073364 3.100396 0.284313
C 0.904079 2.723282 -0.529138
H 0.929906 3.792970 -0.790244
H 1.335912 2.184061 -1.382524
N 1.762812 2.449539 0.608895
H 1.310973 2.377282 1.513978
C 2.934197 1.763800 0.453751
C 3.508654 1.181818 1.725312
H 3.273795 1.790488 2.608631
H 3.073657 0.178432 1.859960
H 4.593458 1.081726 1.613575
O 3.459260 1.603318 -0.637075
O 2.602121 -2.432455 -1.056499
C 3.252401 -1.550663 -1.951889
H 2.577587 -1.253318 -2.772732
H 3.610926 -0.643791 -1.439099
H 4.098287 -2.109868 -2.366425
C -3.472844 -0.017615 -0.626416
F -3.238504 0.840011 -1.604178
F -2.913958 -1.181315 -0.876202
F -4.774114 -0.152003 -0.431227
C -1.618601 0.816184 1.509175
H -2.332995 1.513918 1.939291

--Link1--
%nprocshared=8
%mem=16GB
%chk=ccpvdz_Radical-0018_IRCforward_Complex.chk
# m062x cc-pvtz empiricaldispersion=gd3  Geom=Checkpoint

ccpvdz_Radical-0018_IRCforward_Complex E_ccpvtz

0 2

--Link1--
%nprocshared=8
%mem=16GB
%chk=ccpvdz_Radical-0018_IRCforward_Complex.chk
# m062x cc-pvqz empiricaldispersion=gd3  Geom=Checkpoint

ccpvdz_Radical-0018_IRCforward_Complex E_ccpvqz

0 2

