%nprocshared=8
%mem=16GB
%chk=ccpvdz_Radical-0045_IRCreverse_Product.chk
# opt=calcfc freq m062x cc-pvdz empiricaldispersion=gd3 

ccpvdz_Radical-0045_IRCreverse_Product optfreq

0 2
C -3.541685 -0.353076 1.136545
C -2.470058 0.306237 1.759630
C -1.239718 0.323602 1.128707
C -1.051130 -0.318884 -0.135687
C -2.130315 -0.991385 -0.739625
C -3.368159 -0.998048 -0.101679
H -4.511184 -0.355427 1.630331
H -2.616262 0.798839 2.721109
H -2.038380 -1.482043 -1.708543
C 0.270953 -0.087779 -0.553043
N -0.031346 0.854877 1.558298
H -0.028948 1.667243 2.165466
C 0.901036 -0.501362 -1.840189
H 0.343292 -1.358978 -2.251002
H 0.811295 0.309042 -2.588223
C 2.389581 -0.853164 -1.731033
H 2.960772 0.006576 -1.358530
H 2.775960 -1.103581 -2.730583
N 2.658587 -1.945809 -0.817678
H 2.286115 -2.862164 -1.031504
C 3.314627 -1.774523 0.365362
C 3.445697 -3.019124 1.217021
H 2.594935 -3.059606 1.912755
H 3.459096 -3.941021 0.620964
H 4.365956 -2.938882 1.805601
O 3.749152 -0.692973 0.730081
O -4.368763 -1.650342 -0.762372
C -5.654799 -1.614507 -0.191080
H -5.676245 -2.109203 0.794660
H -6.020075 -0.579515 -0.081188
H -6.311075 -2.157972 -0.879906
C 1.073016 2.236074 -0.124208
F 1.955736 2.245539 -1.137124
F -0.078913 2.732186 -0.587843
F 1.522453 3.091131 0.810830
C 0.915969 0.833899 0.452795
H 1.925767 0.519451 0.769385

--Link1--
%nprocshared=8
%mem=16GB
%chk=ccpvdz_Radical-0045_IRCreverse_Product.chk
# m062x cc-pvtz empiricaldispersion=gd3  Geom=Checkpoint

ccpvdz_Radical-0045_IRCreverse_Product E_ccpvtz

0 2

--Link1--
%nprocshared=8
%mem=16GB
%chk=ccpvdz_Radical-0045_IRCreverse_Product.chk
# m062x cc-pvqz empiricaldispersion=gd3  Geom=Checkpoint

ccpvdz_Radical-0045_IRCreverse_Product E_ccpvqz

0 2

