%nprocshared=8
%mem=16GB
%chk=ccpvdz_Radical-0005_IRCreverse_Product.chk
# opt=calcfc freq m062x cc-pvdz empiricaldispersion=gd3 

ccpvdz_Radical-0005_IRCreverse_Product optfreq

0 2
C 0.672904 3.548454 -0.198078
C 1.842759 2.837471 0.073459
C 1.728226 1.502600 0.438387
C 0.450913 0.886374 0.548615
C -0.732850 1.616395 0.288217
C -0.601689 2.942308 -0.097015
H 0.710445 4.593553 -0.503987
H 2.816232 3.321321 -0.010316
H -1.698695 1.113532 0.350641
C 0.631105 -0.460036 0.887869
N 2.716070 0.584671 0.797322
H 3.628916 0.649214 0.358548
C -0.464869 -1.460620 1.017013
H -0.120065 -2.379095 1.514824
H -1.270575 -1.024249 1.630538
C -1.082091 -1.803011 -0.357626
H -0.428582 -2.484549 -0.916877
H -1.185684 -0.874883 -0.936972
N -2.401570 -2.394926 -0.248648
H -2.505069 -3.400196 -0.230322
C -3.484185 -1.611458 0.004530
C -4.805547 -2.331531 0.163867
H -5.163573 -2.177978 1.190833
H -5.533991 -1.865253 -0.511399
H -4.746165 -3.407037 -0.045387
O -3.399594 -0.394589 0.093977
O -1.651510 3.744632 -0.416647
C -2.931424 3.147292 -0.373706
H -3.182809 2.807728 0.644456
H -3.639686 3.920828 -0.689792
H -2.995906 2.279558 -1.049911
C 2.494371 -1.579750 -0.327000
F 1.992973 -2.823737 -0.221391
F 2.045241 -1.060419 -1.473264
F 3.829712 -1.694018 -0.439488
C 2.110631 -0.736925 0.884591
H 2.464063 -1.299305 1.767793

--Link1--
%nprocshared=8
%mem=16GB
%chk=ccpvdz_Radical-0005_IRCreverse_Product.chk
# m062x cc-pvtz empiricaldispersion=gd3  Geom=Checkpoint

ccpvdz_Radical-0005_IRCreverse_Product E_ccpvtz

0 2

--Link1--
%nprocshared=8
%mem=16GB
%chk=ccpvdz_Radical-0005_IRCreverse_Product.chk
# m062x cc-pvqz empiricaldispersion=gd3  Geom=Checkpoint

ccpvdz_Radical-0005_IRCreverse_Product E_ccpvqz

0 2

