%nprocshared=12
%mem=12GB
# irc=(reverse,phase=(32,36),calcfc,maxpoints=100,recalc=3,Tight) m062x cc-pvdz empiricaldispersion=gd3 

ccpvdz_Radical-0005_IRCreverse.gjf IRCreverse

0 2
C 0.834993 3.499384 -0.209791
C 1.962648 2.823533 0.21666
C 1.800048 1.502156 0.65712
C 0.529901 0.886558 0.662864
C -0.616303 1.586315 0.230571
C -0.446965 2.889772 -0.205465
H 0.898726 4.527363 -0.566298
H 2.939738 3.307595 0.206103
H -1.586682 1.08771 0.233366
C 0.69705 -0.446373 1.151322
N 2.708487 0.587801 1.149851
H 3.711229 0.705624 1.151295
C -0.406806 -1.448335 1.251016
H -0.08736 -2.339488 1.811661
H -1.251073 -0.99448 1.794875
C -0.923006 -1.852626 -0.144635
H -0.239017 -2.567653 -0.618621
H -0.969978 -0.959018 -0.782282
N -2.253501 -2.43065 -0.108638
H -2.36675 -3.433199 -0.049072
C -3.348388 -1.632694 0.002369
C -4.681774 -2.342575 0.097638
H -5.086999 -2.189258 1.10729
H -5.373553 -1.87025 -0.610538
H -4.618974 -3.418434 -0.10908
O -3.266103 -0.412546 0.025688
O -1.459183 3.677268 -0.660158
C -2.744164 3.090931 -0.679031
H -3.070448 2.805375 0.334562
H -3.420881 3.850701 -1.08493
H -2.768705 2.189469 -1.312551
C 2.560746 -1.666807 -0.647801
F 2.180539 -2.949069 -0.644423
F 1.911486 -1.021431 -1.60691
F 3.872064 -1.602371 -0.878857
C 2.059592 -0.61269 1.376759
H 2.565885 -1.423349 1.895625

