%nprocshared=8
%mem=16GB
%chk=ccpvdz_Radical-0007_IRCforward_Complex.chk
# opt=calcfc freq m062x cc-pvdz empiricaldispersion=gd3 

ccpvdz_Radical-0007_IRCforward_Complex optfreq

0 2
C 2.326332 -1.740966 0.893726
C 1.264856 -1.434969 1.737559
C 0.241217 -0.623894 1.247063
C 0.263752 -0.120523 -0.078148
C 1.334961 -0.451351 -0.921700
C 2.360096 -1.252263 -0.432511
H 3.132114 -2.366849 1.271695
H 1.248439 -1.816457 2.759109
H 1.396092 -0.100390 -1.953149
C -0.896039 0.716058 -0.237000
N -0.892732 -0.129217 1.852583
H -1.144309 -0.261338 2.820691
C -1.176576 1.610978 -1.403860
H -0.779444 1.149626 -2.322861
H -2.259249 1.731835 -1.560826
C -0.541141 3.000619 -1.197527
H -1.068125 3.532801 -0.395093
H -0.616398 3.598454 -2.118149
N 0.845491 2.928789 -0.776279
H 1.501090 2.473557 -1.401585
C 1.163442 2.895647 0.561093
C 2.574069 2.440659 0.870077
H 2.909770 2.939281 1.786135
H 2.553011 1.353385 1.048636
H 3.273390 2.647076 0.048789
O 0.374335 3.207821 1.433840
O 3.376891 -1.516154 -1.306275
C 4.446275 -2.305133 -0.842576
H 4.110440 -3.313530 -0.547853
H 5.148401 -2.390827 -1.679392
H 4.958423 -1.833203 0.013073
C -3.166224 -1.414722 -0.237050
F -4.302957 -1.963204 0.159764
F -3.271598 -0.981926 -1.480329
F -2.170390 -2.266082 -0.115325
C -1.553052 0.688386 0.968279
H -2.441982 1.231635 1.277660

--Link1--
%nprocshared=8
%mem=16GB
%chk=ccpvdz_Radical-0007_IRCforward_Complex.chk
# m062x cc-pvtz empiricaldispersion=gd3  Geom=Checkpoint

ccpvdz_Radical-0007_IRCforward_Complex E_ccpvtz

0 2

--Link1--
%nprocshared=8
%mem=16GB
%chk=ccpvdz_Radical-0007_IRCforward_Complex.chk
# m062x cc-pvqz empiricaldispersion=gd3  Geom=Checkpoint

ccpvdz_Radical-0007_IRCforward_Complex E_ccpvqz

0 2

