%nprocshared=8
%mem=16GB
%chk=ccpvdz_Radical-0048_IRCforward_Complex_R2.chk
# opt=calcfc freq m062x cc-pvdz empiricaldispersion=gd3 

ccpvdz_Radical-0048_IRCforward_Complex_R2 optfreq

0 1
 C      -1.66780000     -1.99423700      1.10411900
 C      -1.33861200     -0.91527200      1.91424300
 C      -0.51785700      0.07955500      1.38214300
 C      -0.02076500      0.00415800      0.05678200
 C      -0.35994200     -1.09251500     -0.74521300
 C      -1.18152900     -2.08198500     -0.21978200
 H      -2.30961400     -2.77473000      1.50759100
 H      -1.72244800     -0.85342900      2.93316800
 H       0.00352800     -1.20409900     -1.76641100
 C       0.74134600      1.20714100     -0.18012500
 N      -0.06137400      1.26170500      1.92851400
 H      -0.30564100      1.61817200      2.84012600
 C       1.45293400      1.58992000     -1.44007700
 H       0.74894500      1.59439400     -2.28862600
 H       1.82678000      2.62245500     -1.34046300
 C       2.62498200      0.65280700     -1.77795300
 H       3.17819000      1.04590200     -2.64420600
 H       2.26180600     -0.35068200     -2.03441300
 N       3.52030800      0.46891400     -0.65298600
 H       3.82478600      1.30856000     -0.17244300
 C       3.42509400     -0.66585500      0.12057300
 C       4.05632900     -0.54686400      1.49230700
 H       4.95283700      0.08798600      1.48136300
 H       3.31666100     -0.10200700      2.17574000
 H       4.30786400     -1.54931500      1.85357900
 O       2.88106100     -1.68113500     -0.26356300
 O      -1.47732600     -3.11486500     -1.06125400
 C      -2.27008900     -4.16130300     -0.55636600
 H      -2.36977200     -4.88888100     -1.36956900
 H      -1.79367100     -4.65007700      0.31019300
 H      -3.27346800     -3.80809500     -0.26317800
 C       0.68186700      1.93215800      0.98305000
 H       1.11013600      2.90626400      1.20604600

--Link1--
%nprocshared=8
%mem=16GB
%chk=ccpvdz_Radical-0048_IRCforward_Complex_R2.chk
# m062x cc-pvtz empiricaldispersion=gd3 Geom=Checkpoint

ccpvdz_Radical-0048_IRCforward_Complex_R2 E_ccpvtz

0 1

--Link1--
%nprocshared=8
%mem=16GB
%chk=ccpvdz_Radical-0048_IRCforward_Complex_R2.chk
# m062x cc-pvqz empiricaldispersion=gd3 Geom=Checkpoint

ccpvdz_Radical-0048_IRCforward_Complex_R2 E_ccpvqz

0 1

