%nprocshared=12
%mem=12GB
# irc=(reverse,phase=(32,36),calcfc,maxpoints=100,recalc=3,Tight) m062x cc-pvdz empiricaldispersion=gd3 

ccpvdz_Radical-0003_IRCreverse.gjf IRCreverse

0 2
C -3.794053 -1.255913 -0.509015
C -2.65346 -1.852317 -1.009479
C -1.465148 -1.111239 -0.983131
C -1.424351 0.201931 -0.458845
C -2.601028 0.799432 0.045849
C -3.773591 0.061984 0.014592
H -4.748593 -1.781374 -0.500969
H -2.683689 -2.866498 -1.408678
H -2.566683 1.810423 0.448822
C -0.078634 0.666262 -0.576238
N -0.199666 -1.424612 -1.424105
H 0.093662 -2.335358 -1.746478
C 0.426897 2.013197 -0.166722
H -0.218459 2.787722 -0.614462
H 0.322673 2.133719 0.927822
C 1.87187 2.309099 -0.569667
H 2.067841 3.384587 -0.436645
H 2.042454 2.064844 -1.626574
N 2.846759 1.548838 0.188466
H 2.841125 1.637513 1.196822
C 3.743572 0.689165 -0.373347
C 4.743574 0.093726 0.594589
H 4.314188 -0.047848 1.59494
H 5.077615 -0.869916 0.196887
H 5.61024 0.766928 0.666935
O 3.754878 0.4371 -1.568945
O -4.980022 0.505854 0.467542
C -5.019879 1.807565 1.000502
H -4.358237 1.903673 1.878018
H -4.727049 2.559607 0.248306
H -6.056776 1.984512 1.306371
C 1.384856 -1.201404 0.927172
F 1.502313 -0.307647 1.918852
F 0.440749 -2.076129 1.255923
F 2.549692 -1.849725 0.803614
C 0.663743 -0.398243 -1.099865
H 1.680189 -0.38371 -1.494298

